30

  C -3.21206300  1.17101520 -1.15633101
  C -3.08100307  1.09820150  0.22065571
  C -1.82637783  1.00566069  0.79632779
  C -0.67828580  0.98121190  0.00897236
  C -0.82349430  1.05954281 -1.37363689
  C -2.07724015  1.15426258 -1.95006410
  H -3.96001656  1.12392173  0.85131256
  H -1.73444207  0.97223876  1.87382324
  H  0.05052285  0.99512591 -2.00565354
  H -2.16737281  1.20275515 -3.02726462
  C -1.29982535 -2.36221441 -0.67230861
  H -2.31484643 -2.58855505 -0.34490497
  H -1.17847490 -1.81926606 -1.60709376
  N -0.26929385 -2.68726106 -0.03102191
  H -0.45449415 -3.18976410  0.83376468
  S  1.91379272 -1.94554227 -1.15337171
  O  2.53738283 -3.22466962 -1.31104054
  O  1.17396617 -1.43843144 -2.27700582
  C  0.66158721  0.84532589  0.61876624
  C  0.85827986  0.03638450  1.73433119
  C  1.76508493  1.49654830  0.07527232
  C  2.11665432 -0.12404395  2.28470965
  H  0.01856859 -0.49653418  2.15908890
  C  3.02475076  1.33746345  0.62374093
  H  1.63262661  2.14450011 -0.78049376
  C  3.20675106  0.52393000  1.72953368
  H  2.24878188 -0.76734987  3.14462292
  H  3.86846495  1.85529744  0.18712130
  H -4.19256260  1.24475513 -1.60753029
  H  4.19257815  0.39549096  2.15567805