34

Ru        3.284023930744      0.089928104448      0.181234953782
Cl        3.107072983269     -0.069590906658     -2.148984774420
Cl        5.660850556346      0.236297927604     -0.037238605488
N         1.280306819801     -0.047955403938      0.138609764793
N         2.775215204012      2.109345901533     -0.071967821351
N         3.052044971335     -1.995048289245      0.187963704044
N         3.486165152605      0.213349344483      1.913792341125
O         3.689353983510      0.297816442839      3.032986575445
C         0.583981331485      1.090722458538     -0.006399476087
C         1.424225067839      2.306898758940     -0.117294582458
C         3.155455582313      4.426369665863     -0.430898288204
H         3.872007907661      5.238598355614     -0.561273658006
C         0.743794813455     -1.278658604757      0.143293657281
C        -0.640127755447     -1.398526062943      0.062127668212
H        -1.122397012853     -2.375290850257      0.065271682283
C         3.741964782390     -4.266935905519      0.120583961374
H         4.561852441734     -4.985870596577      0.087753792384
C         1.740076950574     -2.375699637187      0.178987541861
C         0.914499620264      3.582487383105     -0.306470152811
H        -0.162140820513      3.746421260367     -0.343481333884
C        -0.802814833128      1.013292347669     -0.090179382516
H        -1.411403385091      1.909414384766     -0.205280637675
C         3.616994078786      3.130988335692     -0.233446679578
H         4.679526387631      2.879038722738     -0.210163586192
C         4.024310101905     -2.906986451258      0.149612372689
H         5.043336415071     -2.514194211061      0.132599007497
C         1.407256678424     -3.721596630391      0.156052733842
H         0.362595221265     -4.031504686648      0.148844479794
C         2.418458712761     -4.676455471541      0.129166227189
H         2.164861627279     -5.738430711012      0.107095246851
C         1.789025430798      4.652986912689     -0.462177933667
H         1.395798186319      5.660191249267     -0.615482638596
C        -1.403592033790     -0.240470702625     -0.043199954100
H        -2.490740098751     -0.318014434543     -0.109837205405
