89

 Pt                -3.50991800   -0.14859200   -0.03864100
 C                 -5.23441700   -1.05939000   -0.10056600
 C                 -4.39388700    1.57458400    0.20108300
 C                 -6.27112400   -1.69912400   -0.15456400
 C                 -4.87659400    2.68516800    0.34467600
 C                 -7.48392900   -2.44713400   -0.21830500
 C                 -5.44573800    3.98232800    0.51154600
 C                 -8.73125800   -1.81179100   -0.12342600
 C                 -7.46691800   -3.84078400   -0.37371800
 C                 -6.83676200    4.16443000    0.52629900
 C                 -4.63324100    5.11585900    0.65939600
 C                 -9.90665900   -2.54402200   -0.18384100
 H                 -8.76546400   -0.73868500    0.00192600
 C                 -8.64887000   -4.56365500   -0.43299300
 H                 -6.51623100   -4.35136900   -0.44345200
 C                 -7.38497400    5.42792600    0.68347700
 H                 -7.48016800    3.30380500    0.40844400
 C                 -5.19218100    6.37514800    0.81615900
 H                 -3.55833200    4.99850100    0.64594400
 C                 -9.88971300   -3.93125600   -0.34266500
 H                -10.85646200   -2.03038500   -0.10465200
 H                 -8.60839300   -5.63921100   -0.54989400
 C                 -6.57608200    6.55596100    0.83440200
 H                 -8.46154700    5.54250700    0.68750000
 H                 -4.54291700    7.23471900    0.92467200
 C                -11.17019200   -4.71516500   -0.43848600
 C                 -7.17855800    7.91970000    1.03582500
 H                -11.95246500   -4.27528200    0.18083300
 H                -11.54357100   -4.73529600   -1.46585600
 H                -11.02724300   -5.74904800   -0.12394800
 H                 -6.51206300    8.70505200    0.67886200
 H                 -7.37142300    8.11239400    2.09459900
 H                 -8.12971000    8.01497000    0.51136200
 N                 -2.35882400   -1.90221300   -0.29395600
 C                 -2.79748500   -3.14113500   -0.45355600
 C                 -1.02111500   -1.66592400   -0.28945600
 C                 -1.92152600   -4.22185700   -0.61892900
 H                 -3.86955000   -3.26486400   -0.44771100
 C                 -0.07697900   -2.69002500   -0.44972300
 C                 -0.58197600   -0.31598300   -0.12516500
 C                 -0.56464700   -4.00117500   -0.61692000
 H                 -2.32754900   -5.21356700   -0.74530500
 C                  1.31157200   -2.36044600   -0.41624600
 C                  0.79055700   -0.00873300   -0.11537400
 N                 -1.54458700    0.63640100   -0.00238200
 H                  0.13156200   -4.81830200   -0.74136300
 C                  1.75326800   -1.08193000   -0.24183500
 H                  2.02762300   -3.16495500   -0.50510600
 C                  1.13456000    1.35486600   -0.02003700
 C                 -1.19412700    1.90721700    0.11478500
 C                  3.20683900   -0.80904400   -0.18436100
 C                  0.14660200    2.30404500    0.09855200
 H                  2.17126000    1.65035300   -0.04868800
 H                 -2.00488500    2.61276700    0.21262600
 C                  4.04949400   -1.27164600   -1.19786100
 C                  3.77474000   -0.12758900    0.89663500
 H                  0.38830000    3.35296100    0.17319200
 C                  5.41842400   -1.06387600   -1.13581000
 H                  3.62747500   -1.79853300   -2.04181100
 C                  5.14012400    0.09945700    0.95565000
 H                  3.14529200    0.22267000    1.70240400
 C                  5.97149100   -0.37000800   -0.06084900
 H                  6.06081900   -1.43151400   -1.92237500
 H                  5.56662300    0.63325400    1.79202400
 N                  7.37034700   -0.14239400   -0.00157500
 C                  8.06249300   -0.40332100    1.19239600
 C                  8.03834800    0.34585200   -1.13662300
 C                  7.69024700   -1.48696000    1.99632100
 C                  9.11661800    0.42300000    1.59960100
 C                  7.40788400    1.26905500   -1.97882900
 C                  9.33021200   -0.09532800   -1.44675600
 C                  8.35516600   -1.73930100    3.18088100
 H                  6.88175900   -2.13023100    1.68522600
 C                  9.79139600    0.16512700    2.77725900
 H                  9.39895300    1.27013000    0.99377400
 C                  8.05291500    1.74091500   -3.10588100
 H                  6.41406100    1.61641600   -1.74231300
 C                  9.98220600    0.38473500   -2.56621200
 H                  9.81647100   -0.81942200   -0.81140700
 C                  9.41481600   -0.91735600    3.58008300
 H                  8.06633700   -2.58044800    3.79332900
 H                 10.60014700    0.80969200    3.08776300
 C                  9.34804800    1.30568400   -3.40751200
 H                  7.56312500    2.45756200   -3.74816000
 H                 10.97666200    0.03627600   -2.80203900
 C                 10.10679900   -1.18031800    4.80046700
 C                 10.01793200    1.79700500   -4.56818700
 N                 10.66731700   -1.39351100    5.78900700
 N                 10.56036500    2.19522800   -5.50840900
